# create by stb-translate 
# Pb4 I16 C24 N8 H40 

CRYSTAL
PRIMVEC
    9.12230015   0.00000000   0.00000000
    0.00000000   8.77869987   0.00000000
    0.00000000   0.00000000   19.82996788
PRIMCOORD
92  1
82   8.25659386   5.54287110   9.12079373
82   3.69544379   3.23582877   19.03577767
82   4.12054298   3.24109599   2.27449732
82   8.26662839   7.62517871   19.03815727
53   8.25659386   5.54287110   9.12079373
53   3.69544379   3.23582877   19.03577767
53   4.12054298   3.24109599   2.27449732
53   8.26662839   7.62517871   19.03815727
53   8.25659386   5.54287110   9.12079373
53   3.69544379   3.23582877   19.03577767
53   4.12054298   3.24109599   2.27449732
53   8.68169305   5.53760388   12.18948126
53   6.27705473   8.04567844   9.32801689
53   1.71590466   0.73302144   19.24300083
53   5.75617139   3.38594454   9.39742178
53   1.19502132   5.39275533   19.31240572
53   4.11324514   1.11665062   5.90139844
53   8.67439521   7.66204925   15.81638238
53   7.84244144   5.49897760   5.89941545
53   3.28129136   3.27972227   15.81439939
6   8.25659386   5.54287110   9.12079373
6   3.69544379   3.23582877   19.03577767
6   4.12054298   3.24109599   2.27449732
6   8.26662839   7.62517871   19.03815727
6   8.25659386   5.54287110   9.12079373
6   3.69544379   3.23582877   19.03577767
6   4.12054298   3.24109599   2.27449732
6   8.68169305   5.53760388   12.18948126
6   6.27705473   8.04567844   9.32801689
6   1.71590466   0.73302144   19.24300083
6   5.75617139   3.38594454   9.39742178
6   1.19502132   5.39275533   19.31240572
6   4.11324514   1.11665062   5.90139844
6   8.67439521   7.66204925   15.81638238
6   7.84244144   5.49897760   5.89941545
6   3.28129136   3.27972227   15.81439939
6   3.28311582   1.15966625   12.19939624
6   7.84426590   7.61903362   2.28441230
6   1.57086009   7.60586557   8.79062476
6   8.26662839   7.62517871   19.03815727
6   8.25659386   5.54287110   9.12079373
6   3.69544379   3.23582877   19.03577767
6   4.12054298   3.24109599   2.27449732
6   8.68169305   5.53760388   12.18948126
7   8.25659386   5.54287110   9.12079373
7   3.69544379   3.23582877   19.03577767
7   4.12054298   3.24109599   2.27449732
7   8.26662839   7.62517871   19.03815727
7   8.25659386   5.54287110   9.12079373
7   3.69544379   3.23582877   19.03577767
7   4.12054298   3.24109599   2.27449732
7   8.68169305   5.53760388   12.18948126
1   8.25659386   5.54287110   9.12079373
1   3.69544379   3.23582877   19.03577767
1   4.12054298   3.24109599   2.27449732
1   8.26662839   7.62517871   19.03815727
1   8.25659386   5.54287110   9.12079373
1   3.69544379   3.23582877   19.03577767
1   4.12054298   3.24109599   2.27449732
1   8.68169305   5.53760388   12.18948126
1   6.27705473   8.04567844   9.32801689
1   1.71590466   0.73302144   19.24300083
1   5.75617139   3.38594454   9.39742178
1   1.19502132   5.39275533   19.31240572
1   4.11324514   1.11665062   5.90139844
1   8.67439521   7.66204925   15.81638238
1   7.84244144   5.49897760   5.89941545
1   3.28129136   3.27972227   15.81439939
1   3.28311582   1.15966625   12.19939624
1   7.84426590   7.61903362   2.28441230
1   1.57086009   7.60586557   8.79062476
1   8.26662839   7.62517871   19.03815727
1   8.25659386   5.54287110   9.12079373
1   3.69544379   3.23582877   19.03577767
1   4.12054298   3.24109599   2.27449732
1   8.68169305   5.53760388   12.18948126
1   6.27705473   8.04567844   9.32801689
1   1.71590466   0.73302144   19.24300083
1   5.75617139   3.38594454   9.39742178
1   1.19502132   5.39275533   19.31240572
1   4.11324514   1.11665062   5.90139844
1   8.67439521   7.66204925   15.81638238
1   7.84244144   5.49897760   5.89941545
1   3.28129136   3.27972227   15.81439939
1   3.28311582   1.15966625   12.19939624
1   7.84426590   7.61903362   2.28441230
1   1.57086009   7.60586557   8.79062476
1   6.13201016   1.17283430   18.70560870
1   1.33276805   3.35521909   8.80053975
1   5.89391813   5.42348078   18.71552369
1   7.81781123   2.14200277   4.38242290
1   3.25666115   6.63669711   14.29740684
