data_ca01
_audit_creation_date              2024-10-28
_audit_creation_method            'Materials Studio'
_symmetry_space_group_name_H-M    'P1'
_symmetry_Int_Tables_number       1
_symmetry_cell_setting            triclinic
loop_
_symmetry_equiv_pos_as_xyz
  x,y,z
_cell_length_a                    5.9080
_cell_length_b                    5.9080
_cell_length_c                    20.0000
_cell_angle_alpha                 90.0000
_cell_angle_beta                  90.0000
_cell_angle_gamma                 120.0000
loop_
_atom_site_label
_atom_site_type_symbol
_atom_site_fract_x
_atom_site_fract_y
_atom_site_fract_z
_atom_site_U_iso_or_equiv
_atom_site_adp_type
_atom_site_occupancy
C1     C     0.77638   0.28811   0.50000   0.00000  Uiso   1.00
C2     C     0.71188   0.48826   0.50000   0.00000  Uiso   1.00
C3     C     0.51174   0.22362   0.50000   0.00000  Uiso   1.00
C4     C     0.28811   0.77638   0.50000   0.00000  Uiso   1.00
C5     C     0.48826   0.71188   0.50000   0.00000  Uiso   1.00
C6     C     0.22362   0.51174   0.50000   0.00000  Uiso   1.00
C7     C     0.00000   0.00000   0.50000   0.00000  Uiso   1.00
C8     C     0.00000   0.25180   0.50000   0.00000  Uiso   1.00
C9     C     0.74819   0.74819   0.50000   0.00000  Uiso   1.00
C10    C     0.25181   0.00000   0.50000   0.00000  Uiso   1.00
loop_
_geom_bond_atom_site_label_1
_geom_bond_atom_site_label_2
_geom_bond_distance
_geom_bond_site_symmetry_2
_ccdc_geom_bond_type
C1     C3      1.412   .     S
C1     C2      1.412   .     S
C1     C8      1.440   1_655 S
C2     C3      1.412   .     S
C2     C9      1.440   .     S
C3     C10     1.440   .     S
C4     C6      1.412   .     S
C4     C5      1.412   .     S
C4     C10     1.440   1_565 S
C5     C6      1.412   .     S
C5     C9      1.440   .     S
C6     C8      1.440   .     S
C7     C8      1.488   .     S
C7     C10     1.488   .     S
C7     C9      1.488   1_445 S
C8     C1      1.440   1_455 S
C9     C7      1.488   1_665 S
C10    C4      1.440   1_545 S
